                                  MODFLOW-2005     
      U.S. GEOLOGICAL SURVEY MODULAR FINITE-DIFFERENCE GROUND-WATER FLOW MODEL
                            VERSION 1.11.00 8/8/2013

 LIST FILE: tutorial2MainProcess.list
                         UNIT    2

 OPENING tutorial2MainProcess.dis
 FILE TYPE:DIS   UNIT   11   STATUS:OLD    
 FORMAT:FORMATTED              ACCESS:SEQUENTIAL          

 OPENING tutorial2MainProcess.bas
 FILE TYPE:BAS6   UNIT   13   STATUS:OLD    
 FORMAT:FORMATTED              ACCESS:SEQUENTIAL          

 OPENING tutorial2MainProcess.lpf
 FILE TYPE:LPF   UNIT   15   STATUS:OLD    
 FORMAT:FORMATTED              ACCESS:SEQUENTIAL          

 OPENING tutorial2MainProcess.pcg
 FILE TYPE:PCG   UNIT   27   STATUS:OLD    
 FORMAT:FORMATTED              ACCESS:SEQUENTIAL          

 OPENING tutorial2MainProcess.riv
 FILE TYPE:RIV   UNIT   18   STATUS:OLD    
 FORMAT:FORMATTED              ACCESS:SEQUENTIAL          

 OPENING tutorial2MainProcess.wel
 FILE TYPE:WEL   UNIT   20   STATUS:OLD    
 FORMAT:FORMATTED              ACCESS:SEQUENTIAL          

 OPENING tutorial2MainProcess.oc
 FILE TYPE:OC   UNIT   14   STATUS:OLD    
 FORMAT:FORMATTED              ACCESS:SEQUENTIAL          

 OPENING tutorial2MainProcess.hds
 FILE TYPE:DATA(BINARY)   UNIT   51   STATUS:REPLACE
 FORMAT:UNFORMATTED            ACCESS:STREAM              

 OPENING tutorial2MainProcess.ddn
 FILE TYPE:DATA(BINARY)   UNIT   52   STATUS:REPLACE
 FORMAT:UNFORMATTED            ACCESS:STREAM              

 OPENING tutorial2MainProcess.cbc
 FILE TYPE:DATA(BINARY)   UNIT   53   STATUS:REPLACE
 FORMAT:UNFORMATTED            ACCESS:STREAM              

 BAS -- BASIC PACKAGE, VERSION 7, 5/2/2005 INPUT READ FROM UNIT   13

 MODFLOW was compiled using mixed precision
 Precision of REAL variables:           6
 Precision of DOUBLE PRECISION variables:          15

 DISCRETIZATION INPUT DATA READ FROM UNIT   11
 # Discretization file for MODFLOW, generated by Flopy.
    3 LAYERS        10 ROWS        10 COLUMNS
    3 STRESS PERIOD(S) IN SIMULATION
 MODEL TIME UNIT IS DAYS
 MODEL LENGTH UNIT IS METERS
  Confining bed flag for each layer:
   0   0   0

                     DELR =   100.000    

                     DELC =   100.000    

 TOP ELEVATION OF LAYER 1 =   0.00000    

   MODEL LAYER BOTTOM EL. =  -16.6667     FOR LAYER   1

   MODEL LAYER BOTTOM EL. =  -33.3333     FOR LAYER   2

   MODEL LAYER BOTTOM EL. =  -50.0000     FOR LAYER   3


 STRESS PERIOD     LENGTH       TIME STEPS     MULTIPLIER FOR DELT    SS FLAG
 ----------------------------------------------------------------------------
        1         1.000000          1                    1.000         SS
        2         100.0000        100                    1.000         TR
        3         100.0000        100                    1.000         TR

 COMBINED STEADY-STATE AND TRANSIENT SIMULATION




 # Basic package file for MODFLOW, generated by Flopy.                           
 THE FREE FORMAT OPTION HAS BEEN SELECTED



                     BOUNDARY ARRAY FOR LAYER   1
 READING ON UNIT   13 WITH FORMAT: (10I10)             



                     BOUNDARY ARRAY FOR LAYER   2
 READING ON UNIT   13 WITH FORMAT: (10I10)             



                     BOUNDARY ARRAY FOR LAYER   3
 READING ON UNIT   13 WITH FORMAT: (10I10)             

 AQUIFER HEAD WILL BE SET TO  -999.99     AT ALL NO-FLOW NODES (IBOUND=0).



                       INITIAL HEAD FOR LAYER   1
 READING ON UNIT   13 WITH FORMAT: (10G15.6)           



                       INITIAL HEAD FOR LAYER   2
 READING ON UNIT   13 WITH FORMAT: (10G15.6)           



                       INITIAL HEAD FOR LAYER   3
 READING ON UNIT   13 WITH FORMAT: (10G15.6)           
 # Output control package file for MODFLOW, generated by Flopy.

 OUTPUT CONTROL IS SPECIFIED ONLY AT TIME STEPS FOR WHICH OUTPUT IS DESIRED
 COMPACT CELL-BY-CELL BUDGET FILES WILL BE WRITTEN
 HEAD PRINT FORMAT CODE IS   0    DRAWDOWN PRINT FORMAT CODE IS   0
 HEADS WILL BE SAVED ON UNIT   51    DRAWDOWNS WILL BE SAVED ON UNIT   52

 LPF -- LAYER-PROPERTY FLOW PACKAGE, VERSION 7, 5/2/2005
         INPUT READ FROM UNIT   15
 # LPF for MODFLOW, generated by Flopy.
 CELL-BY-CELL FLOWS WILL BE SAVED ON UNIT   53
 HEAD AT CELLS THAT CONVERT TO DRY= -1.00000E+30
 No named parameters

   LAYER FLAGS:
 LAYER       LAYTYP        LAYAVG         CHANI        LAYVKA        LAYWET
 ---------------------------------------------------------------------------
    1             1             0     1.000E+00             0             0
    2             1             0     1.000E+00             0             0
    3             1             0     1.000E+00             0             0

   INTERPRETATION OF LAYER FLAGS:
                        INTERBLOCK     HORIZONTAL    DATA IN
         LAYER TYPE   TRANSMISSIVITY   ANISOTROPY   ARRAY VKA   WETTABILITY
 LAYER      (LAYTYP)      (LAYAVG)       (CHANI)      (LAYVKA)      (LAYWET)
 ---------------------------------------------------------------------------
    1   CONVERTIBLE      HARMONIC     1.000E+00    VERTICAL K  NON-WETTABLE
    2   CONVERTIBLE      HARMONIC     1.000E+00    VERTICAL K  NON-WETTABLE
    3   CONVERTIBLE      HARMONIC     1.000E+00    VERTICAL K  NON-WETTABLE

 WETTING CAPABILITY IS NOT ACTIVE IN ANY LAYER

    HYD. COND. ALONG ROWS =   1.00000     FOR LAYER   1

      VERTICAL HYD. COND. =   1.00000     FOR LAYER   1

         SPECIFIC STORAGE =  1.000000E-04 FOR LAYER   1

           SPECIFIC YIELD =  0.100000     FOR LAYER   1

    HYD. COND. ALONG ROWS =   1.00000     FOR LAYER   2

      VERTICAL HYD. COND. =   1.00000     FOR LAYER   2

         SPECIFIC STORAGE =  1.000000E-04 FOR LAYER   2

           SPECIFIC YIELD =  0.100000     FOR LAYER   2

    HYD. COND. ALONG ROWS =   1.00000     FOR LAYER   3

      VERTICAL HYD. COND. =   1.00000     FOR LAYER   3

         SPECIFIC STORAGE =  1.000000E-04 FOR LAYER   3

           SPECIFIC YIELD =  0.100000     FOR LAYER   3

 WEL -- WELL PACKAGE, VERSION 7, 5/2/2005 INPUT READ FROM UNIT   20
 # Well file for MODFLOW, generated by Flopy.
 No named parameters
 MAXIMUM OF      1 ACTIVE WELLS AT ONE TIME


     0 Well parameters

 RIV -- RIVER PACKAGE, VERSION 7, 5/2/2005 INPUT READ FROM UNIT   18
 # RIV for MODFLOW, generated by Flopy.
 No named parameters
 MAXIMUM OF     60 ACTIVE RIVER REACHES AT ONE TIME


     0 River parameters

 PCG -- CONJUGATE-GRADIENT SOLUTION PACKAGE, VERSION 7, 5/2/2005
 # PCG for MODFLOW, generated by Flopy.
 MAXIMUM OF     50 CALLS OF SOLUTION ROUTINE
 MAXIMUM OF     30 INTERNAL ITERATIONS PER CALL TO SOLUTION ROUTINE
 MATRIX PRECONDITIONING TYPE :    1



                                    SOLUTION BY THE CONJUGATE-GRADIENT METHOD
                                   -------------------------------------------
                    MAXIMUM NUMBER OF CALLS TO PCG ROUTINE =       50
                        MAXIMUM ITERATIONS PER CALL TO PCG =       30
                               MATRIX PRECONDITIONING TYPE =        1
        RELAXATION FACTOR (ONLY USED WITH PRECOND. TYPE 1) =    0.10000E+01
 PARAMETER OF POLYNOMIAL PRECOND. = 2 (2) OR IS CALCULATED :        0
                         HEAD CHANGE CRITERION FOR CLOSURE =    0.10000E-04
                     RESIDUAL CHANGE CRITERION FOR CLOSURE =    0.10000E-04
            PCG HEAD AND RESIDUAL CHANGE PRINTOUT INTERVAL =      999
     PRINTING FROM SOLVER IS LIMITED(1) OR SUPPRESSED (>1) =        3
                            STEADY-STATE DAMPING PARAMETER =    0.10000E+01
                               TRANSIENT DAMPING PARAMETER =    0.10000E+01
1
                            STRESS PERIOD NO.    1, LENGTH =   1.000000    
                            -----------------------------------------------

                              NUMBER OF TIME STEPS =     1

                               MULTIPLIER FOR DELT =     1.000

                            INITIAL TIME STEP SIZE =   1.000000    

 WELL NO.  LAYER   ROW   COL   STRESS RATE         
 --------------------------------------------------
      1      1      5      5       0.000    

      1 WELL 

 REACH NO.  LAYER   ROW   COL     STAGE      CONDUCTANCE     BOTTOM EL.         
 -------------------------------------------------------------------------------
      1      1      1      1       10.00           6000.          -5.000    
      2      1      1     10       10.00           6000.          -5.000    
      3      1      2      1       10.00           6000.          -5.000    
      4      1      2     10       10.00           6000.          -5.000    
      5      1      3      1       10.00           6000.          -5.000    
      6      1      3     10       10.00           6000.          -5.000    
      7      1      4      1       10.00           6000.          -5.000    
      8      1      4     10       10.00           6000.          -5.000    
      9      1      5      1       10.00           6000.          -5.000    
     10      1      5     10       10.00           6000.          -5.000    
     11      1      6      1       10.00           6000.          -5.000    
     12      1      6     10       10.00           6000.          -5.000    
     13      1      7      1       10.00           6000.          -5.000    
     14      1      7     10       10.00           6000.          -5.000    
     15      1      8      1       10.00           6000.          -5.000    
     16      1      8     10       10.00           6000.          -5.000    
     17      1      9      1       10.00           6000.          -5.000    
     18      1      9     10       10.00           6000.          -5.000    
     19      1     10      1       10.00           6000.          -5.000    
     20      1     10     10       10.00           6000.          -5.000    
     21      2      1      1       10.00           6000.          -5.000    
     22      2      1     10       10.00           6000.          -5.000    
     23      2      2      1       10.00           6000.          -5.000    
     24      2      2     10       10.00           6000.          -5.000    
     25      2      3      1       10.00           6000.          -5.000    
     26      2      3     10       10.00           6000.          -5.000    
     27      2      4      1       10.00           6000.          -5.000    
     28      2      4     10       10.00           6000.          -5.000    
     29      2      5      1       10.00           6000.          -5.000    
     30      2      5     10       10.00           6000.          -5.000    
     31      2      6      1       10.00           6000.          -5.000    
     32      2      6     10       10.00           6000.          -5.000    
     33      2      7      1       10.00           6000.          -5.000    
     34      2      7     10       10.00           6000.          -5.000    
     35      2      8      1       10.00           6000.          -5.000    
     36      2      8     10       10.00           6000.          -5.000    
     37      2      9      1       10.00           6000.          -5.000    
     38      2      9     10       10.00           6000.          -5.000    
     39      2     10      1       10.00           6000.          -5.000    
     40      2     10     10       10.00           6000.          -5.000    
     41      3      1      1       10.00           6000.          -5.000    
     42      3      1     10       10.00           6000.          -5.000    
     43      3      2      1       10.00           6000.          -5.000    
     44      3      2     10       10.00           6000.          -5.000    
     45      3      3      1       10.00           6000.          -5.000    
     46      3      3     10       10.00           6000.          -5.000    
     47      3      4      1       10.00           6000.          -5.000    
     48      3      4     10       10.00           6000.          -5.000    
     49      3      5      1       10.00           6000.          -5.000    
     50      3      5     10       10.00           6000.          -5.000    
     51      3      6      1       10.00           6000.          -5.000    
     52      3      6     10       10.00           6000.          -5.000    
     53      3      7      1       10.00           6000.          -5.000    
     54      3      7     10       10.00           6000.          -5.000    
     55      3      8      1       10.00           6000.          -5.000    
     56      3      8     10       10.00           6000.          -5.000    
     57      3      9      1       10.00           6000.          -5.000    
     58      3      9     10       10.00           6000.          -5.000    
     59      3     10      1       10.00           6000.          -5.000    
     60      3     10     10       10.00           6000.          -5.000    

     60 RIVER REACHES

 SOLVING FOR HEAD 

 OUTPUT CONTROL FOR STRESS PERIOD    1   TIME STEP    1
    SAVE HEAD FOR ALL LAYERS
    SAVE DRAWDOWN FOR ALL LAYERS
    SAVE BUDGET
    PRINT HEAD FOR ALL LAYERS
    PRINT BUDGET
 UBDSV2 SAVING "   CONSTANT HEAD" ON UNIT  53 AT TIME STEP  1, STRESS PERIOD   1
 UBDSV1 SAVING "FLOW RIGHT FACE " ON UNIT  53 AT TIME STEP  1, STRESS PERIOD   1
 UBDSV1 SAVING "FLOW FRONT FACE " ON UNIT  53 AT TIME STEP  1, STRESS PERIOD   1
 UBDSV1 SAVING "FLOW LOWER FACE " ON UNIT  53 AT TIME STEP  1, STRESS PERIOD   1
1
              HEAD IN LAYER   1 AT END OF TIME STEP   1 IN STRESS PERIOD    1
  ---------------------------------------------------------------------------

            1           2           3           4           5           6           7           8           9          10
 ........................................................................................................................
   1    10.00       10.00       10.00       10.00       10.00       10.00       10.00       10.00       10.00       10.00    
   2    10.00       10.00       10.00       10.00       10.00       10.00       10.00       10.00       10.00       10.00    
   3    10.00       10.00       10.00       10.00       10.00       10.00       10.00       10.00       10.00       10.00    
   4    10.00       10.00       10.00       10.00       10.00       10.00       10.00       10.00       10.00       10.00    
   5    10.00       10.00       10.00       10.00       10.00       10.00       10.00       10.00       10.00       10.00    
   6    10.00       10.00       10.00       10.00       10.00       10.00       10.00       10.00       10.00       10.00    
   7    10.00       10.00       10.00       10.00       10.00       10.00       10.00       10.00       10.00       10.00    
   8    10.00       10.00       10.00       10.00       10.00       10.00       10.00       10.00       10.00       10.00    
   9    10.00       10.00       10.00       10.00       10.00       10.00       10.00       10.00       10.00       10.00    
  10    10.00       10.00       10.00       10.00       10.00       10.00       10.00       10.00       10.00       10.00    
1
              HEAD IN LAYER   2 AT END OF TIME STEP   1 IN STRESS PERIOD    1
  ---------------------------------------------------------------------------

            1           2           3           4           5           6           7           8           9          10
 ........................................................................................................................
   1    10.00       10.00       10.00       10.00       10.00       10.00       10.00       10.00       10.00       10.00    
   2    10.00       10.00       10.00       10.00       10.00       10.00       10.00       10.00       10.00       10.00    
   3    10.00       10.00       10.00       10.00       10.00       10.00       10.00       10.00       10.00       10.00    
   4    10.00       10.00       10.00       10.00       10.00       10.00       10.00       10.00       10.00       10.00    
   5    10.00       10.00       10.00       10.00       10.00       10.00       10.00       10.00       10.00       10.00    
   6    10.00       10.00       10.00       10.00       10.00       10.00       10.00       10.00       10.00       10.00    
   7    10.00       10.00       10.00       10.00       10.00       10.00       10.00       10.00       10.00       10.00    
   8    10.00       10.00       10.00       10.00       10.00       10.00       10.00       10.00       10.00       10.00    
   9    10.00       10.00       10.00       10.00       10.00       10.00       10.00       10.00       10.00       10.00    
  10    10.00       10.00       10.00       10.00       10.00       10.00       10.00       10.00       10.00       10.00    
1
              HEAD IN LAYER   3 AT END OF TIME STEP   1 IN STRESS PERIOD    1
  ---------------------------------------------------------------------------

            1           2           3           4           5           6           7           8           9          10
 ........................................................................................................................
   1    10.00       10.00       10.00       10.00       10.00       10.00       10.00       10.00       10.00       10.00    
   2    10.00       10.00       10.00       10.00       10.00       10.00       10.00       10.00       10.00       10.00    
   3    10.00       10.00       10.00       10.00       10.00       10.00       10.00       10.00       10.00       10.00    
   4    10.00       10.00       10.00       10.00       10.00       10.00       10.00       10.00       10.00       10.00    
   5    10.00       10.00       10.00       10.00       10.00       10.00       10.00       10.00       10.00       10.00    
   6    10.00       10.00       10.00       10.00       10.00       10.00       10.00       10.00       10.00       10.00    
   7    10.00       10.00       10.00       10.00       10.00       10.00       10.00       10.00       10.00       10.00    
   8    10.00       10.00       10.00       10.00       10.00       10.00       10.00       10.00       10.00       10.00    
   9    10.00       10.00       10.00       10.00       10.00       10.00       10.00       10.00       10.00       10.00    
  10    10.00       10.00       10.00       10.00       10.00       10.00       10.00       10.00       10.00       10.00    

 HEAD WILL BE SAVED ON UNIT   51 AT END OF TIME STEP    1, STRESS PERIOD    1

 DRAWDOWN WILL BE SAVED ON UNIT   52 AT END OF TIME STEP    1, STRESS PERIOD    1
1
  VOLUMETRIC BUDGET FOR ENTIRE MODEL AT END OF TIME STEP    1, STRESS PERIOD   1
  ------------------------------------------------------------------------------

     CUMULATIVE VOLUMES      L**3       RATES FOR THIS TIME STEP      L**3/T
     ------------------                 ------------------------

           IN:                                      IN:
           ---                                      ---
             STORAGE =           0.0000               STORAGE =           0.0000
       CONSTANT HEAD =           0.0000         CONSTANT HEAD =           0.0000
               WELLS =           0.0000                 WELLS =           0.0000
       RIVER LEAKAGE =           0.0000         RIVER LEAKAGE =           0.0000

            TOTAL IN =           0.0000              TOTAL IN =           0.0000

          OUT:                                     OUT:
          ----                                     ----
             STORAGE =           0.0000               STORAGE =           0.0000
       CONSTANT HEAD =           0.0000         CONSTANT HEAD =           0.0000
               WELLS =           0.0000                 WELLS =           0.0000
       RIVER LEAKAGE =           0.0000         RIVER LEAKAGE =           0.0000

           TOTAL OUT =           0.0000             TOTAL OUT =           0.0000

            IN - OUT =           0.0000              IN - OUT =           0.0000

 PERCENT DISCREPANCY =           0.00     PERCENT DISCREPANCY =           0.00






         TIME SUMMARY AT END OF TIME STEP    1 IN STRESS PERIOD    1
                    SECONDS     MINUTES      HOURS       DAYS        YEARS
                    -----------------------------------------------------------
   TIME STEP LENGTH  86400.      1440.0      24.000      1.0000     2.73785E-03
 STRESS PERIOD TIME  86400.      1440.0      24.000      1.0000     2.73785E-03
         TOTAL TIME  86400.      1440.0      24.000      1.0000     2.73785E-03
1
1
                            STRESS PERIOD NO.    2, LENGTH =   100.0000    
                            -----------------------------------------------

                              NUMBER OF TIME STEPS =   100

                               MULTIPLIER FOR DELT =     1.000

                            INITIAL TIME STEP SIZE =   1.000000    

 WELL NO.  LAYER   ROW   COL   STRESS RATE         
 --------------------------------------------------
      1      1      5      5       0.000    

      1 WELL 

 REACH NO.  LAYER   ROW   COL     STAGE      CONDUCTANCE     BOTTOM EL.         
 -------------------------------------------------------------------------------
      1      1      1      1       10.00           6000.          -5.000    
      2      1      1     10       0.000           5000.          -5.000    
      3      1      2      1       10.00           6000.          -5.000    
      4      1      2     10       0.000           5000.          -5.000    
      5      1      3      1       10.00           6000.          -5.000    
      6      1      3     10       0.000           5000.          -5.000    
      7      1      4      1       10.00           6000.          -5.000    
      8      1      4     10       0.000           5000.          -5.000    
      9      1      5      1       10.00           6000.          -5.000    
     10      1      5     10       0.000           5000.          -5.000    
     11      1      6      1       10.00           6000.          -5.000    
     12      1      6     10       0.000           5000.          -5.000    
     13      1      7      1       10.00           6000.          -5.000    
     14      1      7     10       0.000           5000.          -5.000    
     15      1      8      1       10.00           6000.          -5.000    
     16      1      8     10       0.000           5000.          -5.000    
     17      1      9      1       10.00           6000.          -5.000    
     18      1      9     10       0.000           5000.          -5.000    
     19      1     10      1       10.00           6000.          -5.000    
     20      1     10     10       0.000           5000.          -5.000    
     21      2      1      1       10.00           6000.          -5.000    
     22      2      1     10       0.000           5000.          -5.000    
     23      2      2      1       10.00           6000.          -5.000    
     24      2      2     10       0.000           5000.          -5.000    
     25      2      3      1       10.00           6000.          -5.000    
     26      2      3     10       0.000           5000.          -5.000    
     27      2      4      1       10.00           6000.          -5.000    
     28      2      4     10       0.000           5000.          -5.000    
     29      2      5      1       10.00           6000.          -5.000    
     30      2      5     10       0.000           5000.          -5.000    
     31      2      6      1       10.00           6000.          -5.000    
     32      2      6     10       0.000           5000.          -5.000    
     33      2      7      1       10.00           6000.          -5.000    
     34      2      7     10       0.000           5000.          -5.000    
     35      2      8      1       10.00           6000.          -5.000    
     36      2      8     10       0.000           5000.          -5.000    
     37      2      9      1       10.00           6000.          -5.000    
     38      2      9     10       0.000           5000.          -5.000    
     39      2     10      1       10.00           6000.          -5.000    
     40      2     10     10       0.000           5000.          -5.000    
     41      3      1      1       10.00           6000.          -5.000    
     42      3      1     10       0.000           5000.          -5.000    
     43      3      2      1       10.00           6000.          -5.000    
     44      3      2     10       0.000           5000.          -5.000    
     45      3      3      1       10.00           6000.          -5.000    
     46      3      3     10       0.000           5000.          -5.000    
     47      3      4      1       10.00           6000.          -5.000    
     48      3      4     10       0.000           5000.          -5.000    
     49      3      5      1       10.00           6000.          -5.000    
     50      3      5     10       0.000           5000.          -5.000    
     51      3      6      1       10.00           6000.          -5.000    
     52      3      6     10       0.000           5000.          -5.000    
     53      3      7      1       10.00           6000.          -5.000    
     54      3      7     10       0.000           5000.          -5.000    
     55      3      8      1       10.00           6000.          -5.000    
     56      3      8     10       0.000           5000.          -5.000    
     57      3      9      1       10.00           6000.          -5.000    
     58      3      9     10       0.000           5000.          -5.000    
     59      3     10      1       10.00           6000.          -5.000    
     60      3     10     10       0.000           5000.          -5.000    

     60 RIVER REACHES

 SOLVING FOR HEAD 

 OUTPUT CONTROL FOR STRESS PERIOD    2   TIME STEP    1
    SAVE HEAD FOR ALL LAYERS
    SAVE DRAWDOWN FOR ALL LAYERS
    SAVE BUDGET
    PRINT HEAD FOR ALL LAYERS
    PRINT BUDGET
 UBDSV1 SAVING "         STORAGE" ON UNIT  53 AT TIME STEP  1, STRESS PERIOD   2
 UBDSV2 SAVING "   CONSTANT HEAD" ON UNIT  53 AT TIME STEP  1, STRESS PERIOD   2
 UBDSV1 SAVING "FLOW RIGHT FACE " ON UNIT  53 AT TIME STEP  1, STRESS PERIOD   2
 UBDSV1 SAVING "FLOW FRONT FACE " ON UNIT  53 AT TIME STEP  1, STRESS PERIOD   2
 UBDSV1 SAVING "FLOW LOWER FACE " ON UNIT  53 AT TIME STEP  1, STRESS PERIOD   2
1
              HEAD IN LAYER   1 AT END OF TIME STEP   1 IN STRESS PERIOD    2
  ---------------------------------------------------------------------------

            1           2           3           4           5           6           7           8           9          10
 ........................................................................................................................
   1    10.00       9.996       9.988       9.969       9.919       9.788       9.446       8.549       6.201      5.3645E-02
   2    10.00       9.996       9.988       9.969       9.919       9.788       9.446       8.549       6.201      5.3645E-02
   3    10.00       9.996       9.988       9.969       9.919       9.788       9.446       8.549       6.201      5.3645E-02
   4    10.00       9.996       9.988       9.969       9.919       9.788       9.446       8.549       6.201      5.3645E-02
   5    10.00       9.996       9.988       9.969       9.919       9.788       9.446       8.549       6.201      5.3645E-02
   6    10.00       9.996       9.988       9.969       9.919       9.788       9.446       8.549       6.201      5.3645E-02
   7    10.00       9.996       9.988       9.969       9.919       9.788       9.446       8.549       6.201      5.3645E-02
   8    10.00       9.996       9.988       9.969       9.919       9.788       9.446       8.549       6.201      5.3645E-02
   9    10.00       9.996       9.988       9.969       9.919       9.788       9.446       8.549       6.201      5.3645E-02
  10    10.00       9.996       9.988       9.969       9.919       9.788       9.446       8.549       6.201      5.3645E-02
1
              HEAD IN LAYER   2 AT END OF TIME STEP   1 IN STRESS PERIOD    2
  ---------------------------------------------------------------------------

            1           2           3           4           5           6           7           8           9          10
 ........................................................................................................................
   1    10.00       9.996       9.988       9.969       9.919       9.788       9.446       8.549       6.201      5.3645E-02
   2    10.00       9.996       9.988       9.969       9.919       9.788       9.446       8.549       6.201      5.3645E-02
   3    10.00       9.996       9.988       9.969       9.919       9.788       9.446       8.549       6.201      5.3645E-02
   4    10.00       9.996       9.988       9.969       9.919       9.788       9.446       8.549       6.201      5.3645E-02
   5    10.00       9.996       9.988       9.969       9.919       9.788       9.446       8.549       6.201      5.3645E-02
   6    10.00       9.996       9.988       9.969       9.919       9.788       9.446       8.549       6.201      5.3645E-02
   7    10.00       9.996       9.988       9.969       9.919       9.788       9.446       8.549       6.201      5.3645E-02
   8    10.00       9.996       9.988       9.969       9.919       9.788       9.446       8.549       6.201      5.3645E-02
   9    10.00       9.996       9.988       9.969       9.919       9.788       9.446       8.549       6.201      5.3645E-02
  10    10.00       9.996       9.988       9.969       9.919       9.788       9.446       8.549       6.201      5.3645E-02
1
              HEAD IN LAYER   3 AT END OF TIME STEP   1 IN STRESS PERIOD    2
  ---------------------------------------------------------------------------

            1           2           3           4           5           6           7           8           9          10
 ........................................................................................................................
   1    10.00       9.996       9.988       9.969       9.919       9.788       9.446       8.549       6.201      5.3645E-02
   2    10.00       9.996       9.988       9.969       9.919       9.788       9.446       8.549       6.201      5.3645E-02
   3    10.00       9.996       9.988       9.969       9.919       9.788       9.446       8.549       6.201      5.3645E-02
   4    10.00       9.996       9.988       9.969       9.919       9.788       9.446       8.549       6.201      5.3645E-02
   5    10.00       9.996       9.988       9.969       9.919       9.788       9.446       8.549       6.201      5.3645E-02
   6    10.00       9.996       9.988       9.969       9.919       9.788       9.446       8.549       6.201      5.3645E-02
   7    10.00       9.996       9.988       9.969       9.919       9.788       9.446       8.549       6.201      5.3645E-02
   8    10.00       9.996       9.988       9.969       9.919       9.788       9.446       8.549       6.201      5.3645E-02
   9    10.00       9.996       9.988       9.969       9.919       9.788       9.446       8.549       6.201      5.3645E-02
  10    10.00       9.996       9.988       9.969       9.919       9.788       9.446       8.549       6.201      5.3645E-02

 HEAD WILL BE SAVED ON UNIT   51 AT END OF TIME STEP    1, STRESS PERIOD    2

 DRAWDOWN WILL BE SAVED ON UNIT   52 AT END OF TIME STEP    1, STRESS PERIOD    2
1
  VOLUMETRIC BUDGET FOR ENTIRE MODEL AT END OF TIME STEP    1, STRESS PERIOD   2
  ------------------------------------------------------------------------------

     CUMULATIVE VOLUMES      L**3       RATES FOR THIS TIME STEP      L**3/T
     ------------------                 ------------------------

           IN:                                      IN:
           ---                                      ---
             STORAGE =        8044.8525               STORAGE =        8044.8525
       CONSTANT HEAD =           0.0000         CONSTANT HEAD =           0.0000
               WELLS =           0.0000                 WELLS =           0.0000
       RIVER LEAKAGE =           1.8286         RIVER LEAKAGE =           1.8286

            TOTAL IN =        8046.6812              TOTAL IN =        8046.6812

          OUT:                                     OUT:
          ----                                     ----
             STORAGE =           0.0000               STORAGE =           0.0000
       CONSTANT HEAD =           0.0000         CONSTANT HEAD =           0.0000
               WELLS =           0.0000                 WELLS =           0.0000
       RIVER LEAKAGE =        8046.7705         RIVER LEAKAGE =        8046.7705

           TOTAL OUT =        8046.7705             TOTAL OUT =        8046.7705

            IN - OUT =      -8.9355E-02              IN - OUT =      -8.9355E-02

 PERCENT DISCREPANCY =          -0.00     PERCENT DISCREPANCY =          -0.00






         TIME SUMMARY AT END OF TIME STEP    1 IN STRESS PERIOD    2
                    SECONDS     MINUTES      HOURS       DAYS        YEARS
                    -----------------------------------------------------------
   TIME STEP LENGTH  86400.      1440.0      24.000      1.0000     2.73785E-03
 STRESS PERIOD TIME  86400.      1440.0      24.000      1.0000     2.73785E-03
         TOTAL TIME 1.72800E+05  2880.0      48.000      2.0000     5.47570E-03
1

 SOLVING FOR HEAD 

 OUTPUT CONTROL FOR STRESS PERIOD    2   TIME STEP    2
    SAVE HEAD FOR ALL LAYERS
    SAVE DRAWDOWN FOR ALL LAYERS
    SAVE BUDGET
    PRINT HEAD FOR ALL LAYERS
    PRINT BUDGET
 UBDSV1 SAVING "         STORAGE" ON UNIT  53 AT TIME STEP  2, STRESS PERIOD   2
 UBDSV2 SAVING "   CONSTANT HEAD" ON UNIT  53 AT TIME STEP  2, STRESS PERIOD   2
 UBDSV1 SAVING "FLOW RIGHT FACE " ON UNIT  53 AT TIME STEP  2, STRESS PERIOD   2
 UBDSV1 SAVING "FLOW FRONT FACE " ON UNIT  53 AT TIME STEP  2, STRESS PERIOD   2
 UBDSV1 SAVING "FLOW LOWER FACE " ON UNIT  53 AT TIME STEP  2, STRESS PERIOD   2
1
              HEAD IN LAYER   1 AT END OF TIME STEP   2 IN STRESS PERIOD    2
  ---------------------------------------------------------------------------

            1           2           3           4           5           6           7           8           9          10
 ........................................................................................................................
   1    10.00       9.983       9.953       9.887       9.738       9.409       8.700       7.245       4.487      1.5035E-02
   2    10.00       9.983       9.953       9.887       9.738       9.409       8.700       7.245       4.487      1.5035E-02
   3    10.00       9.983       9.953       9.887       9.738       9.409       8.700       7.245       4.487      1.5035E-02
   4    10.00       9.983       9.953       9.887       9.738       9.409       8.700       7.245       4.487      1.5035E-02
   5    10.00       9.983       9.953       9.887       9.738       9.409       8.700       7.245       4.487      1.5035E-02
   6    10.00       9.983       9.953       9.887       9.738       9.409       8.700       7.245       4.487      1.5035E-02
   7    10.00       9.983       9.953       9.887       9.738       9.409       8.700       7.245       4.487      1.5035E-02
   8    10.00       9.983       9.953       9.887       9.738       9.409       8.700       7.245       4.487      1.5035E-02
   9    10.00       9.983       9.953       9.887       9.738       9.409       8.700       7.245       4.487      1.5035E-02
  10    10.00       9.983       9.953       9.887       9.738       9.409       8.700       7.245       4.487      1.5035E-02
1
              HEAD IN LAYER   2 AT END OF TIME STEP   2 IN STRESS PERIOD    2
  ---------------------------------------------------------------------------

            1           2           3           4           5           6           7           8           9          10
 ........................................................................................................................
   1    10.00       9.983       9.953       9.887       9.738       9.409       8.700       7.245       4.487      1.5035E-02
   2    10.00       9.983       9.953       9.887       9.738       9.409       8.700       7.245       4.487      1.5035E-02
   3    10.00       9.983       9.953       9.887       9.738       9.409       8.700       7.245       4.487      1.5035E-02
   4    10.00       9.983       9.953       9.887       9.738       9.409       8.700       7.245       4.487      1.5035E-02
   5    10.00       9.983       9.953       9.887       9.738       9.409       8.700       7.245       4.487      1.5035E-02
   6    10.00       9.983       9.953       9.887       9.738       9.409       8.700       7.245       4.487      1.5035E-02
   7    10.00       9.983       9.953       9.887       9.738       9.409       8.700       7.245       4.487      1.5035E-02
   8    10.00       9.983       9.953       9.887       9.738       9.409       8.700       7.245       4.487      1.5035E-02
   9    10.00       9.983       9.953       9.887       9.738       9.409       8.700       7.245       4.487      1.5035E-02
  10    10.00       9.983       9.953       9.887       9.738       9.409       8.700       7.245       4.487      1.5035E-02
1
              HEAD IN LAYER   3 AT END OF TIME STEP   2 IN STRESS PERIOD    2
  ---------------------------------------------------------------------------

            1           2           3           4           5           6           7           8           9          10
 ........................................................................................................................
   1    10.00       9.983       9.953       9.887       9.738       9.409       8.700       7.245       4.487      1.5035E-02
   2    10.00       9.983       9.953       9.887       9.738       9.409       8.700       7.245       4.487      1.5035E-02
   3    10.00       9.983       9.953       9.887       9.738       9.409       8.700       7.245       4.487      1.5035E-02
   4    10.00       9.983       9.953       9.887       9.738       9.409       8.700       7.245       4.487      1.5035E-02
   5    10.00       9.983       9.953       9.887       9.738       9.409       8.700       7.245       4.487      1.5035E-02
   6    10.00       9.983       9.953       9.887       9.738       9.409       8.700       7.245       4.487      1.5035E-02
   7    10.00       9.983       9.953       9.887       9.738       9.409       8.700       7.245       4.487      1.5035E-02
   8    10.00       9.983       9.953       9.887       9.738       9.409       8.700       7.245       4.487      1.5035E-02
   9    10.00       9.983       9.953       9.887       9.738       9.409       8.700       7.245       4.487      1.5035E-02
  10    10.00       9.983       9.953       9.887       9.738       9.409       8.700       7.245       4.487      1.5035E-02

 HEAD WILL BE SAVED ON UNIT   51 AT END OF TIME STEP    2, STRESS PERIOD    2

 DRAWDOWN WILL BE SAVED ON UNIT   52 AT END OF TIME STEP    2, STRESS PERIOD    2
1
  VOLUMETRIC BUDGET FOR ENTIRE MODEL AT END OF TIME STEP    2, STRESS PERIOD   2
  ------------------------------------------------------------------------------

     CUMULATIVE VOLUMES      L**3       RATES FOR THIS TIME STEP      L**3/T
     ------------------                 ------------------------

           IN:                                      IN:
           ---                                      ---
             STORAGE =       10291.6719               STORAGE =        2246.8196
       CONSTANT HEAD =           0.0000         CONSTANT HEAD =           0.0000
               WELLS =           0.0000                 WELLS =           0.0000
       RIVER LEAKAGE =          10.2275         RIVER LEAKAGE =           8.3989

            TOTAL IN =       10301.8994              TOTAL IN =        2255.2185

          OUT:                                     OUT:
          ----                                     ----
             STORAGE =           0.0000               STORAGE =           0.0000
       CONSTANT HEAD =           0.0000         CONSTANT HEAD =           0.0000
               WELLS =           0.0000                 WELLS =           0.0000
       RIVER LEAKAGE =       10302.0820         RIVER LEAKAGE =        2255.3115

           TOTAL OUT =       10302.0820             TOTAL OUT =        2255.3115

            IN - OUT =          -0.1826              IN - OUT =      -9.3018E-02

 PERCENT DISCREPANCY =          -0.00     PERCENT DISCREPANCY =          -0.00






         TIME SUMMARY AT END OF TIME STEP    2 IN STRESS PERIOD    2
                    SECONDS     MINUTES      HOURS       DAYS        YEARS
                    -----------------------------------------------------------
   TIME STEP LENGTH  86400.      1440.0      24.000      1.0000     2.73785E-03
 STRESS PERIOD TIME 1.72800E+05  2880.0      48.000      2.0000     5.47570E-03
         TOTAL TIME 2.59200E+05  4320.0      72.000      3.0000     8.21355E-03
1

 SOLVING FOR HEAD 

 OUTPUT CONTROL FOR STRESS PERIOD    2   TIME STEP    3
    SAVE HEAD FOR ALL LAYERS
    SAVE DRAWDOWN FOR ALL LAYERS
    SAVE BUDGET
    PRINT HEAD FOR ALL LAYERS
    PRINT BUDGET
 UBDSV1 SAVING "         STORAGE" ON UNIT  53 AT TIME STEP  3, STRESS PERIOD   2
 UBDSV2 SAVING "   CONSTANT HEAD" ON UNIT  53 AT TIME STEP  3, STRESS PERIOD   2
 UBDSV1 SAVING "FLOW RIGHT FACE " ON UNIT  53 AT TIME STEP  3, STRESS PERIOD   2
 UBDSV1 SAVING "FLOW FRONT FACE " ON UNIT  53 AT TIME STEP  3, STRESS PERIOD   2
 UBDSV1 SAVING "FLOW LOWER FACE " ON UNIT  53 AT TIME STEP  3, STRESS PERIOD   2
1
              HEAD IN LAYER   1 AT END OF TIME STEP   3 IN STRESS PERIOD    2
  ---------------------------------------------------------------------------

            1           2           3           4           5           6           7           8           9          10
 ........................................................................................................................
   1    10.00       9.957       9.887       9.752       9.482       8.955       7.975       6.270       3.590      1.1936E-02
   2    10.00       9.957       9.887       9.752       9.482       8.955       7.975       6.270       3.590      1.1936E-02
   3    10.00       9.957       9.887       9.752       9.482       8.955       7.975       6.270       3.590      1.1936E-02
   4    10.00       9.957       9.887       9.752       9.482       8.955       7.975       6.270       3.590      1.1936E-02
   5    10.00       9.957       9.887       9.752       9.482       8.955       7.975       6.270       3.590      1.1936E-02
   6    10.00       9.957       9.887       9.752       9.482       8.955       7.975       6.270       3.590      1.1936E-02
   7    10.00       9.957       9.887       9.752       9.482       8.955       7.975       6.270       3.590      1.1936E-02
   8    10.00       9.957       9.887       9.752       9.482       8.955       7.975       6.270       3.590      1.1936E-02
   9    10.00       9.957       9.887       9.752       9.482       8.955       7.975       6.270       3.590      1.1936E-02
  10    10.00       9.957       9.887       9.752       9.482       8.955       7.975       6.270       3.590      1.1936E-02
1
              HEAD IN LAYER   2 AT END OF TIME STEP   3 IN STRESS PERIOD    2
  ---------------------------------------------------------------------------

            1           2           3           4           5           6           7           8           9          10
 ........................................................................................................................
   1    10.00       9.957       9.887       9.752       9.482       8.955       7.975       6.270       3.590      1.1936E-02
   2    10.00       9.957       9.887       9.752       9.482       8.955       7.975       6.270       3.590      1.1936E-02
   3    10.00       9.957       9.887       9.752       9.482       8.955       7.975       6.270       3.590      1.1936E-02
   4    10.00       9.957       9.887       9.752       9.482       8.955       7.975       6.270       3.590      1.1936E-02
   5    10.00       9.957       9.887       9.752       9.482       8.955       7.975       6.270       3.590      1.1936E-02
   6    10.00       9.957       9.887       9.752       9.482       8.955       7.975       6.270       3.590      1.1936E-02
   7    10.00       9.957       9.887       9.752       9.482       8.955       7.975       6.270       3.590      1.1936E-02
   8    10.00       9.957       9.887       9.752       9.482       8.955       7.975       6.270       3.590      1.1936E-02
   9    10.00       9.957       9.887       9.752       9.482       8.955       7.975       6.270       3.590      1.1936E-02
  10    10.00       9.957       9.887       9.752       9.482       8.955       7.975       6.270       3.590      1.1936E-02
1
              HEAD IN LAYER   3 AT END OF TIME STEP   3 IN STRESS PERIOD    2
  ---------------------------------------------------------------------------

            1           2           3           4           5           6           7           8           9          10
 ........................................................................................................................
   1    10.00       9.957       9.887       9.752       9.482       8.955       7.975       6.270       3.590      1.1936E-02
   2    10.00       9.957       9.887       9.752       9.482       8.955       7.975       6.270       3.590      1.1936E-02
   3    10.00       9.957       9.887       9.752       9.482       8.955       7.975       6.270       3.590      1.1936E-02
   4    10.00       9.957       9.887       9.752       9.482       8.955       7.975       6.270       3.590      1.1936E-02
   5    10.00       9.957       9.887       9.752       9.482       8.955       7.975       6.270       3.590      1.1936E-02
   6    10.00       9.957       9.887       9.752       9.482       8.955       7.975       6.270       3.590      1.1936E-02
   7    10.00       9.957       9.887       9.752       9.482       8.955       7.975       6.270       3.590      1.1936E-02
   8    10.00       9.957       9.887       9.752       9.482       8.955       7.975       6.270       3.590      1.1936E-02
   9    10.00       9.957       9.887       9.752       9.482       8.955       7.975       6.270       3.590      1.1936E-02
  10    10.00       9.957       9.887       9.752       9.482       8.955       7.975       6.270       3.590      1.1936E-02

 HEAD WILL BE SAVED ON UNIT   51 AT END OF TIME STEP    3, STRESS PERIOD    2

 DRAWDOWN WILL BE SAVED ON UNIT   52 AT END OF TIME STEP    3, STRESS PERIOD    2
1
  VOLUMETRIC BUDGET FOR ENTIRE MODEL AT END OF TIME STEP    3, STRESS PERIOD   2
  ------------------------------------------------------------------------------

     CUMULATIVE VOLUMES      L**3       RATES FOR THIS TIME STEP      L**3/T
     ------------------                 ------------------------

           IN:                                      IN:
           ---                                      ---
             STORAGE =       12060.4912               STORAGE =        1768.8195
       CONSTANT HEAD =           0.0000         CONSTANT HEAD =           0.0000
               WELLS =           0.0000                 WELLS =           0.0000
       RIVER LEAKAGE =          31.8255         RIVER LEAKAGE =          21.5980

            TOTAL IN =       12092.3164              TOTAL IN =        1790.4175

          OUT:                                     OUT:
          ----                                     ----
             STORAGE =           0.0000               STORAGE =           0.0000
       CONSTANT HEAD =           0.0000         CONSTANT HEAD =           0.0000
               WELLS =           0.0000                 WELLS =           0.0000
       RIVER LEAKAGE =       12092.4932         RIVER LEAKAGE =        1790.4114

           TOTAL OUT =       12092.4932             TOTAL OUT =        1790.4114

            IN - OUT =          -0.1768              IN - OUT =       6.1035E-03

 PERCENT DISCREPANCY =          -0.00     PERCENT DISCREPANCY =           0.00






         TIME SUMMARY AT END OF TIME STEP    3 IN STRESS PERIOD    2
                    SECONDS     MINUTES      HOURS       DAYS        YEARS
                    -----------------------------------------------------------
   TIME STEP LENGTH  86400.      1440.0      24.000      1.0000     2.73785E-03
 STRESS PERIOD TIME 2.59200E+05  4320.0      72.000      3.0000     8.21355E-03
         TOTAL TIME 3.45600E+05  5760.0      96.000      4.0000     1.09514E-02
1

 SOLVING FOR HEAD 

 OUTPUT CONTROL FOR STRESS PERIOD    2   TIME STEP    4
    SAVE HEAD FOR ALL LAYERS
    SAVE DRAWDOWN FOR ALL LAYERS
    SAVE BUDGET
    PRINT HEAD FOR ALL LAYERS
    PRINT BUDGET
 UBDSV1 SAVING "         STORAGE" ON UNIT  53 AT TIME STEP  4, STRESS PERIOD   2
 UBDSV2 SAVING "   CONSTANT HEAD" ON UNIT  53 AT TIME STEP  4, STRESS PERIOD   2
 UBDSV1 SAVING "FLOW RIGHT FACE " ON UNIT  53 AT TIME STEP  4, STRESS PERIOD   2
 UBDSV1 SAVING "FLOW FRONT FACE " ON UNIT  53 AT TIME STEP  4, STRESS PERIOD   2
 UBDSV1 SAVING "FLOW LOWER FACE " ON UNIT  53 AT TIME STEP  4, STRESS PERIOD   2
1
              HEAD IN LAYER   1 AT END OF TIME STEP   4 IN STRESS PERIOD    2
  ---------------------------------------------------------------------------

            1           2           3           4           5           6           7           8           9          10
 ........................................................................................................................
   1    10.00       9.917       9.793       9.576       9.184       8.493       7.341       5.554       3.051      1.0143E-02
   2    10.00       9.917       9.793       9.576       9.184       8.493       7.341       5.554       3.051      1.0143E-02
   3    10.00       9.917       9.793       9.576       9.184       8.493       7.341       5.554       3.051      1.0143E-02
   4    10.00       9.917       9.793       9.576       9.184       8.493       7.341       5.554       3.051      1.0143E-02
   5    10.00       9.917       9.793       9.576       9.184       8.493       7.341       5.554       3.051      1.0143E-02
   6    10.00       9.917       9.793       9.576       9.184       8.493       7.341       5.554       3.051      1.0143E-02
   7    10.00       9.917       9.793       9.576       9.184       8.493       7.341       5.554       3.051      1.0143E-02
   8    10.00       9.917       9.793       9.576       9.184       8.493       7.341       5.554       3.051      1.0143E-02
   9    10.00       9.917       9.793       9.576       9.184       8.493       7.341       5.554       3.051      1.0143E-02
  10    10.00       9.917       9.793       9.576       9.184       8.493       7.341       5.554       3.051      1.0143E-02
1
              HEAD IN LAYER   2 AT END OF TIME STEP   4 IN STRESS PERIOD    2
  ---------------------------------------------------------------------------

            1           2           3           4           5           6           7           8           9          10
 ........................................................................................................................
   1    10.00       9.917       9.793       9.576       9.184       8.493       7.341       5.554       3.051      1.0143E-02
   2    10.00       9.917       9.793       9.576       9.184       8.493       7.341       5.554       3.051      1.0143E-02
   3    10.00       9.917       9.793       9.576       9.184       8.493       7.341       5.554       3.051      1.0143E-02
   4    10.00       9.917       9.793       9.576       9.184       8.493       7.341       5.554       3.051      1.0143E-02
   5    10.00       9.917       9.793       9.576       9.184       8.493       7.341       5.554       3.051      1.0143E-02
   6    10.00       9.917       9.793       9.576       9.184       8.493       7.341       5.554       3.051      1.0143E-02
   7    10.00       9.917       9.793       9.576       9.184       8.493       7.341       5.554       3.051      1.0143E-02
   8    10.00       9.917       9.793       9.576       9.184       8.493       7.341       5.554       3.051      1.0143E-02
   9    10.00       9.917       9.793       9.576       9.184       8.493       7.341       5.554       3.051      1.0143E-02
  10    10.00       9.917       9.793       9.576       9.184       8.493       7.341       5.554       3.051      1.0143E-02
1
              HEAD IN LAYER   3 AT END OF TIME STEP   4 IN STRESS PERIOD    2
  ---------------------------------------------------------------------------

            1           2           3           4           5           6           7           8           9          10
 ........................................................................................................................
   1    10.00       9.917       9.793       9.576       9.184       8.493       7.341       5.554       3.051      1.0143E-02
   2    10.00       9.917       9.793       9.576       9.184       8.493       7.341       5.554       3.051      1.0143E-02
   3    10.00       9.917       9.793       9.576       9.184       8.493       7.341       5.554       3.051      1.0143E-02
   4    10.00       9.917       9.793       9.576       9.184       8.493       7.341       5.554       3.051      1.0143E-02
   5    10.00       9.917       9.793       9.576       9.184       8.493       7.341       5.554       3.051      1.0143E-02
   6    10.00       9.917       9.793       9.576       9.184       8.493       7.341       5.554       3.051      1.0143E-02
   7    10.00       9.917       9.793       9.576       9.184       8.493       7.341       5.554       3.051      1.0143E-02
   8    10.00       9.917       9.793       9.576       9.184       8.493       7.341       5.554       3.051      1.0143E-02
   9    10.00       9.917       9.793       9.576       9.184       8.493       7.341       5.554       3.051      1.0143E-02
  10    10.00       9.917       9.793       9.576       9.184       8.493       7.341       5.554       3.051      1.0143E-02

 HEAD WILL BE SAVED ON UNIT   51 AT END OF TIME STEP    4, STRESS PERIOD    2

 DRAWDOWN WILL BE SAVED ON UNIT   52 AT END OF TIME STEP    4, STRESS PERIOD    2
1
  VOLUMETRIC BUDGET FOR ENTIRE MODEL AT END OF TIME STEP    4, STRESS PERIOD   2
  ------------------------------------------------------------------------------

     CUMULATIVE VOLUMES      L**3       RATES FOR THIS TIME STEP      L**3/T
     ------------------                 ------------------------

           IN:                                      IN:
           ---                                      ---
             STORAGE =       13540.4062               STORAGE =        1479.9150
       CONSTANT HEAD =           0.0000         CONSTANT HEAD =           0.0000
               WELLS =           0.0000                 WELLS =           0.0000
       RIVER LEAKAGE =          73.3407         RIVER LEAKAGE =          41.5152

            TOTAL IN =       13613.7471              TOTAL IN =        1521.4302

          OUT:                                     OUT:
          ----                                     ----
             STORAGE =           0.0000               STORAGE =           0.0000
       CONSTANT HEAD =           0.0000         CONSTANT HEAD =           0.0000
               WELLS =           0.0000                 WELLS =           0.0000
       RIVER LEAKAGE =       13613.9541         RIVER LEAKAGE =        1521.4611

           TOTAL OUT =       13613.9541             TOTAL OUT =        1521.4611

            IN - OUT =          -0.2070              IN - OUT =      -3.0884E-02

 PERCENT DISCREPANCY =          -0.00     PERCENT DISCREPANCY =          -0.00






         TIME SUMMARY AT END OF TIME STEP    4 IN STRESS PERIOD    2
                    SECONDS     MINUTES      HOURS       DAYS        YEARS
                    -----------------------------------------------------------
   TIME STEP LENGTH  86400.      1440.0      24.000      1.0000     2.73785E-03
 STRESS PERIOD TIME 3.45600E+05  5760.0      96.000      4.0000     1.09514E-02
         TOTAL TIME 4.32000E+05  7200.0      120.00      5.0000     1.36893E-02
1

 SOLVING FOR HEAD 

 OUTPUT CONTROL FOR STRESS PERIOD    2   TIME STEP    5
    SAVE HEAD FOR ALL LAYERS
    SAVE DRAWDOWN FOR ALL LAYERS
    SAVE BUDGET
    PRINT HEAD FOR ALL LAYERS
    PRINT BUDGET
 UBDSV1 SAVING "         STORAGE" ON UNIT  53 AT TIME STEP  5, STRESS PERIOD   2
 UBDSV2 SAVING "   CONSTANT HEAD" ON UNIT  53 AT TIME STEP  5, STRESS PERIOD   2
 UBDSV1 SAVING "FLOW RIGHT FACE " ON UNIT  53 AT TIME STEP  5, STRESS PERIOD   2
 UBDSV1 SAVING "FLOW FRONT FACE " ON UNIT  53 AT TIME STEP  5, STRESS PERIOD   2
 UBDSV1 SAVING "FLOW LOWER FACE " ON UNIT  53 AT TIME STEP  5, STRESS PERIOD   2
1
              HEAD IN LAYER   1 AT END OF TIME STEP   5 IN STRESS PERIOD    2
  ---------------------------------------------------------------------------

            1           2           3           4           5           6           7           8           9          10
 ........................................................................................................................
   1    10.00       9.865       9.678       9.375       8.872       8.057       6.805       5.017       2.692      8.9490E-03
   2    10.00       9.865       9.678       9.375       8.872       8.057       6.805       5.017       2.692      8.9490E-03
   3    10.00       9.865       9.678       9.375       8.872       8.057       6.805       5.017       2.692      8.9490E-03
   4    10.00       9.865       9.678       9.375       8.872       8.057       6.805       5.017       2.692      8.9490E-03
   5    10.00       9.865       9.678       9.375       8.872       8.057       6.805       5.017       2.692      8.9490E-03
   6    10.00       9.865       9.678       9.375       8.872       8.057       6.805       5.017       2.692      8.9490E-03
   7    10.00       9.865       9.678       9.375       8.872       8.057       6.805       5.017       2.692      8.9490E-03
   8    10.00       9.865       9.678       9.375       8.872       8.057       6.805       5.017       2.692      8.9490E-03
   9    10.00       9.865       9.678       9.375       8.872       8.057       6.805       5.017       2.692      8.9490E-03
  10    10.00       9.865       9.678       9.375       8.872       8.057       6.805       5.017       2.692      8.9490E-03
1
              HEAD IN LAYER   2 AT END OF TIME STEP   5 IN STRESS PERIOD    2
  ---------------------------------------------------------------------------

            1           2           3           4           5           6           7           8           9          10
 ........................................................................................................................
   1    10.00       9.865       9.678       9.375       8.872       8.057       6.805       5.017       2.692      8.9490E-03
   2    10.00       9.865       9.678       9.375       8.872       8.057       6.805       5.017       2.692      8.9490E-03
   3    10.00       9.865       9.678       9.375       8.872       8.057       6.805       5.017       2.692      8.9490E-03
   4    10.00       9.865       9.678       9.375       8.872       8.057       6.805       5.017       2.692      8.9490E-03
   5    10.00       9.865       9.678       9.375       8.872       8.057       6.805       5.017       2.692      8.9490E-03
   6    10.00       9.865       9.678       9.375       8.872       8.057       6.805       5.017       2.692      8.9490E-03
   7    10.00       9.865       9.678       9.375       8.872       8.057       6.805       5.017       2.692      8.9490E-03
   8    10.00       9.865       9.678       9.375       8.872       8.057       6.805       5.017       2.692      8.9490E-03
   9    10.00       9.865       9.678       9.375       8.872       8.057       6.805       5.017       2.692      8.9490E-03
  10    10.00       9.865       9.678       9.375       8.872       8.057       6.805       5.017       2.692      8.9490E-03
1
              HEAD IN LAYER   3 AT END OF TIME STEP   5 IN STRESS PERIOD    2
  ---------------------------------------------------------------------------

            1           2           3           4           5           6           7           8           9          10
 ........................................................................................................................
   1    10.00       9.865       9.678       9.375       8.872       8.057       6.805       5.017       2.692      8.9489E-03
   2    10.00       9.865       9.678       9.375       8.872       8.057       6.805       5.017       2.692      8.9489E-03
   3    10.00       9.865       9.678       9.375       8.872       8.057       6.805       5.017       2.692      8.9489E-03
   4    10.00       9.865       9.678       9.375       8.872       8.057       6.805       5.017       2.692      8.9489E-03
   5    10.00       9.865       9.678       9.375       8.872       8.057       6.805       5.017       2.692      8.9489E-03
   6    10.00       9.865       9.678       9.375       8.872       8.057       6.805       5.017       2.692      8.9489E-03
   7    10.00       9.865       9.678       9.375       8.872       8.057       6.805       5.017       2.692      8.9489E-03
   8    10.00       9.865       9.678       9.375       8.872       8.057       6.805       5.017       2.692      8.9489E-03
   9    10.00       9.865       9.678       9.375       8.872       8.057       6.805       5.017       2.692      8.9489E-03
  10    10.00       9.865       9.678       9.375       8.872       8.057       6.805       5.017       2.692      8.9489E-03

 HEAD WILL BE SAVED ON UNIT   51 AT END OF TIME STEP    5, STRESS PERIOD    2

 DRAWDOWN WILL BE SAVED ON UNIT   52 AT END OF TIME STEP    5, STRESS PERIOD    2
1
  VOLUMETRIC BUDGET FOR ENTIRE MODEL AT END OF TIME STEP    5, STRESS PERIOD   2
  ------------------------------------------------------------------------------

     CUMULATIVE VOLUMES      L**3       RATES FOR THIS TIME STEP      L**3/T
     ------------------                 ------------------------

           IN:                                      IN:
           ---                                      ---
             STORAGE =       14815.3340               STORAGE =        1274.9281
       CONSTANT HEAD =           0.0000         CONSTANT HEAD =           0.0000
               WELLS =           0.0000                 WELLS =           0.0000
       RIVER LEAKAGE =         140.6696         RIVER LEAKAGE =          67.3289

            TOTAL IN =       14956.0039              TOTAL IN =        1342.2570

          OUT:                                     OUT:
          ----                                     ----
             STORAGE =           0.0000               STORAGE =           0.0000
       CONSTANT HEAD =           0.0000         CONSTANT HEAD =           0.0000
               WELLS =           0.0000                 WELLS =           0.0000
       RIVER LEAKAGE =       14956.2969         RIVER LEAKAGE =        1342.3428

           TOTAL OUT =       14956.2969             TOTAL OUT =        1342.3428

            IN - OUT =          -0.2930              IN - OUT =      -8.5815E-02

 PERCENT DISCREPANCY =          -0.00     PERCENT DISCREPANCY =          -0.01






         TIME SUMMARY AT END OF TIME STEP    5 IN STRESS PERIOD    2
                    SECONDS     MINUTES      HOURS       DAYS        YEARS
                    -----------------------------------------------------------
   TIME STEP LENGTH  86400.      1440.0      24.000      1.0000     2.73785E-03
 STRESS PERIOD TIME 4.32000E+05  7200.0      120.00      5.0000     1.36893E-02
         TOTAL TIME 5.18400E+05  8640.0      144.00      6.0000     1.64271E-02
1

 SOLVING FOR HEAD 

 OUTPUT CONTROL FOR STRESS PERIOD    2   TIME STEP    6
    SAVE HEAD FOR ALL LAYERS
    SAVE DRAWDOWN FOR ALL LAYERS
    SAVE BUDGET
    PRINT HEAD FOR ALL LAYERS
    PRINT BUDGET
 UBDSV1 SAVING "         STORAGE" ON UNIT  53 AT TIME STEP  6, STRESS PERIOD   2
 UBDSV2 SAVING "   CONSTANT HEAD" ON UNIT  53 AT TIME STEP  6, STRESS PERIOD   2
 UBDSV1 SAVING "FLOW RIGHT FACE " ON UNIT  53 AT TIME STEP  6, STRESS PERIOD   2
 UBDSV1 SAVING "FLOW FRONT FACE " ON UNIT  53 AT TIME STEP  6, STRESS PERIOD   2
 UBDSV1 SAVING "FLOW LOWER FACE " ON UNIT  53 AT TIME STEP  6, STRESS PERIOD   2
1
              HEAD IN LAYER   1 AT END OF TIME STEP   6 IN STRESS PERIOD    2
  ---------------------------------------------------------------------------

            1           2           3           4           5           6           7           8           9          10
 ........................................................................................................................
   1    9.999       9.804       9.548       9.163       8.564       7.659       6.355       4.602       2.434      8.0901E-03
   2    9.999       9.804       9.548       9.163       8.564       7.659       6.355       4.602       2.434      8.0901E-03
   3    9.999       9.804       9.548       9.163       8.564       7.659       6.355       4.602       2.434      8.0901E-03
   4    9.999       9.804       9.548       9.163       8.564       7.659       6.355       4.602       2.434      8.0901E-03
   5    9.999       9.804       9.548       9.163       8.564       7.659       6.355       4.602       2.434      8.0901E-03
   6    9.999       9.804       9.548       9.163       8.564       7.659       6.355       4.602       2.434      8.0901E-03
   7    9.999       9.804       9.548       9.163       8.564       7.659       6.355       4.602       2.434      8.0901E-03
   8    9.999       9.804       9.548       9.163       8.564       7.659       6.355       4.602       2.434      8.0901E-03
   9    9.999       9.804       9.548       9.163       8.564       7.659       6.355       4.602       2.434      8.0901E-03
  10    9.999       9.804       9.548       9.163       8.564       7.659       6.355       4.602       2.434      8.0901E-03
1
              HEAD IN LAYER   2 AT END OF TIME STEP   6 IN STRESS PERIOD    2
  ---------------------------------------------------------------------------

            1           2           3           4           5           6           7           8           9          10
 ........................................................................................................................
   1    9.999       9.804       9.548       9.163       8.564       7.659       6.355       4.602       2.434      8.0901E-03
   2    9.999       9.804       9.548       9.163       8.564       7.659       6.355       4.602       2.434      8.0901E-03
   3    9.999       9.804       9.548       9.163       8.564       7.659       6.355       4.602       2.434      8.0901E-03
   4    9.999       9.804       9.548       9.163       8.564       7.659       6.355       4.602       2.434      8.0901E-03
   5    9.999       9.804       9.548       9.163       8.564       7.659       6.355       4.602       2.434      8.0901E-03
   6    9.999       9.804       9.548       9.163       8.564       7.659       6.355       4.602       2.434      8.0901E-03
   7    9.999       9.804       9.548       9.163       8.564       7.659       6.355       4.602       2.434      8.0901E-03
   8    9.999       9.804       9.548       9.163       8.564       7.659       6.355       4.602       2.434      8.0901E-03
   9    9.999       9.804       9.548       9.163       8.564       7.659       6.355       4.602       2.434      8.0901E-03
  10    9.999       9.804       9.548       9.163       8.564       7.659       6.355       4.602       2.434      8.0901E-03
1
              HEAD IN LAYER   3 AT END OF TIME STEP   6 IN STRESS PERIOD    2
  ---------------------------------------------------------------------------

            1           2           3           4           5           6           7           8           9          10
 ........................................................................................................................
   1    9.999       9.804       9.548       9.163       8.564       7.659       6.355       4.602       2.434      8.0900E-03
   2    9.999       9.804       9.548       9.163       8.564       7.659       6.355       4.602       2.434      8.0900E-03
   3    9.999       9.804       9.548       9.163       8.564       7.659       6.355       4.602       2.434      8.0900E-03
   4    9.999       9.804       9.548       9.163       8.564       7.659       6.355       4.602       2.434      8.0900E-03
   5    9.999       9.804       9.548       9.163       8.564       7.659       6.355       4.602       2.434      8.0900E-03
   6    9.999       9.804       9.548       9.163       8.564       7.659       6.355       4.602       2.434      8.0900E-03
   7    9.999       9.804       9.548       9.163       8.564       7.659       6.355       4.602       2.434      8.0900E-03
   8    9.999       9.804       9.548       9.163       8.564       7.659       6.355       4.602       2.434      8.0900E-03
   9    9.999       9.804       9.548       9.163       8.564       7.659       6.355       4.602       2.434      8.0900E-03
  10    9.999       9.804       9.548       9.163       8.564       7.659       6.355       4.602       2.434      8.0900E-03

 HEAD WILL BE SAVED ON UNIT   51 AT END OF TIME STEP    6, STRESS PERIOD    2

 DRAWDOWN WILL BE SAVED ON UNIT   52 AT END OF TIME STEP    6, STRESS PERIOD    2
1
  VOLUMETRIC BUDGET FOR ENTIRE MODEL AT END OF TIME STEP    6, STRESS PERIOD   2
  ------------------------------------------------------------------------------

     CUMULATIVE VOLUMES      L**3       RATES FOR THIS TIME STEP      L**3/T
     ------------------                 ------------------------

           IN:                                      IN:
           ---                                      ---
             STORAGE =       15931.2441               STORAGE =        1115.9100
       CONSTANT HEAD =           0.0000         CONSTANT HEAD =           0.0000
               WELLS =           0.0000                 WELLS =           0.0000
       RIVER LEAKAGE =         238.2268         RIVER LEAKAGE =          97.5573

            TOTAL IN =       16169.4707              TOTAL IN =        1213.4673

          OUT:                                     OUT:
          ----                                     ----
             STORAGE =           0.0000               STORAGE =           0.0000
       CONSTANT HEAD =           0.0000         CONSTANT HEAD =           0.0000
               WELLS =           0.0000                 WELLS =           0.0000
       RIVER LEAKAGE =       16169.8047         RIVER LEAKAGE =        1213.5081

           TOTAL OUT =       16169.8047             TOTAL OUT =        1213.5081

            IN - OUT =          -0.3340              IN - OUT =      -4.0771E-02

 PERCENT DISCREPANCY =          -0.00     PERCENT DISCREPANCY =          -0.00






         TIME SUMMARY AT END OF TIME STEP    6 IN STRESS PERIOD    2
                    SECONDS     MINUTES      HOURS       DAYS        YEARS
                    -----------------------------------------------------------
   TIME STEP LENGTH  86400.      1440.0      24.000      1.0000     2.73785E-03
 STRESS PERIOD TIME 5.18400E+05  8640.0      144.00      6.0000     1.64271E-02
         TOTAL TIME 6.04800E+05  10080.      168.00      7.0000     1.91650E-02
1

 SOLVING FOR HEAD 

 OUTPUT CONTROL FOR STRESS PERIOD    2   TIME STEP    7
    SAVE HEAD FOR ALL LAYERS
    SAVE DRAWDOWN FOR ALL LAYERS
    SAVE BUDGET
    PRINT HEAD FOR ALL LAYERS
    PRINT BUDGET
 UBDSV1 SAVING "         STORAGE" ON UNIT  53 AT TIME STEP  7, STRESS PERIOD   2
 UBDSV2 SAVING "   CONSTANT HEAD" ON UNIT  53 AT TIME STEP  7, STRESS PERIOD   2
 UBDSV1 SAVING "FLOW RIGHT FACE " ON UNIT  53 AT TIME STEP  7, STRESS PERIOD   2
 UBDSV1 SAVING "FLOW FRONT FACE " ON UNIT  53 AT TIME STEP  7, STRESS PERIOD   2
 UBDSV1 SAVING "FLOW LOWER FACE " ON UNIT  53 AT TIME STEP  7, STRESS PERIOD   2
1
              HEAD IN LAYER   1 AT END OF TIME STEP   7 IN STRESS PERIOD    2
  ---------------------------------------------------------------------------

            1           2           3           4           5           6           7           8           9          10
 ........................................................................................................................
   1    9.999       9.738       9.412       8.949       8.272       7.302       5.977       4.272       2.238      7.4374E-03
   2    9.999       9.738       9.412       8.949       8.272       7.302       5.977       4.272       2.238      7.4374E-03
   3    9.999       9.738       9.412       8.949       8.272       7.302       5.977       4.272       2.238      7.4374E-03
   4    9.999       9.738       9.412       8.949       8.272       7.302       5.977       4.272       2.238      7.4374E-03
   5    9.999       9.738       9.412       8.949       8.272       7.302       5.977       4.272       2.238      7.4374E-03
   6    9.999       9.738       9.412       8.949       8.272       7.302       5.977       4.272       2.238      7.4374E-03
   7    9.999       9.738       9.412       8.949       8.272       7.302       5.977       4.272       2.238      7.4374E-03
   8    9.999       9.738       9.412       8.949       8.272       7.302       5.977       4.272       2.238      7.4374E-03
   9    9.999       9.738       9.412       8.949       8.272       7.302       5.977       4.272       2.238      7.4374E-03
  10    9.999       9.738       9.412       8.949       8.272       7.302       5.977       4.272       2.238      7.4374E-03
1
              HEAD IN LAYER   2 AT END OF TIME STEP   7 IN STRESS PERIOD    2
  ---------------------------------------------------------------------------

            1           2           3           4           5           6           7           8           9          10
 ........................................................................................................................
   1    9.999       9.738       9.412       8.949       8.272       7.302       5.977       4.272       2.238      7.4374E-03
   2    9.999       9.738       9.412       8.949       8.272       7.302       5.977       4.272       2.238      7.4374E-03
   3    9.999       9.738       9.412       8.949       8.272       7.302       5.977       4.272       2.238      7.4374E-03
   4    9.999       9.738       9.412       8.949       8.272       7.302       5.977       4.272       2.238      7.4374E-03
   5    9.999       9.738       9.412       8.949       8.272       7.302       5.977       4.272       2.238      7.4374E-03
   6    9.999       9.738       9.412       8.949       8.272       7.302       5.977       4.272       2.238      7.4374E-03
   7    9.999       9.738       9.412       8.949       8.272       7.302       5.977       4.272       2.238      7.4374E-03
   8    9.999       9.738       9.412       8.949       8.272       7.302       5.977       4.272       2.238      7.4374E-03
   9    9.999       9.738       9.412       8.949       8.272       7.302       5.977       4.272       2.238      7.4374E-03
  10    9.999       9.738       9.412       8.949       8.272       7.302       5.977       4.272       2.238      7.4374E-03
1
              HEAD IN LAYER   3 AT END OF TIME STEP   7 IN STRESS PERIOD    2
  ---------------------------------------------------------------------------

            1           2           3           4           5           6           7           8           9          10
 ........................................................................................................................
   1    9.999       9.738       9.412       8.949       8.272       7.302       5.977       4.272       2.238      7.4374E-03
   2    9.999       9.738       9.412       8.949       8.272       7.302       5.977       4.272       2.238      7.4374E-03
   3    9.999       9.738       9.412       8.949       8.272       7.302       5.977       4.272       2.238      7.4374E-03
   4    9.999       9.738       9.412       8.949       8.272       7.302       5.977       4.272       2.238      7.4374E-03
   5    9.999       9.738       9.412       8.949       8.272       7.302       5.977       4.272       2.238      7.4374E-03
   6    9.999       9.738       9.412       8.949       8.272       7.302       5.977       4.272       2.238      7.4374E-03
   7    9.999       9.738       9.412       8.949       8.272       7.302       5.977       4.272       2.238      7.4374E-03
   8    9.999       9.738       9.412       8.949       8.272       7.302       5.977       4.272       2.238      7.4374E-03
   9    9.999       9.738       9.412       8.949       8.272       7.302       5.977       4.272       2.238      7.4374E-03
  10    9.999       9.738       9.412       8.949       8.272       7.302       5.977       4.272       2.238      7.4374E-03

 HEAD WILL BE SAVED ON UNIT   51 AT END OF TIME STEP    7, STRESS PERIOD    2

 DRAWDOWN WILL BE SAVED ON UNIT   52 AT END OF TIME STEP    7, STRESS PERIOD    2
1
  VOLUMETRIC BUDGET FOR ENTIRE MODEL AT END OF TIME STEP    7, STRESS PERIOD   2
  ------------------------------------------------------------------------------

     CUMULATIVE VOLUMES      L**3       RATES FOR THIS TIME STEP      L**3/T
     ------------------                 ------------------------

           IN:                                      IN:
           ---                                      ---
             STORAGE =       16916.4922               STORAGE =         985.2480
       CONSTANT HEAD =           0.0000         CONSTANT HEAD =           0.0000
               WELLS =           0.0000                 WELLS =           0.0000
       RIVER LEAKAGE =         368.5752         RIVER LEAKAGE =         130.3484

            TOTAL IN =       17285.0684              TOTAL IN =        1115.5964

          OUT:                                     OUT:
          ----                                     ----
             STORAGE =           0.0000               STORAGE =           0.0000
       CONSTANT HEAD =           0.0000         CONSTANT HEAD =           0.0000
               WELLS =           0.0000                 WELLS =           0.0000
       RIVER LEAKAGE =       17285.4102         RIVER LEAKAGE =        1115.6046

           TOTAL OUT =       17285.4102             TOTAL OUT =        1115.6046

            IN - OUT =          -0.3418              IN - OUT =      -8.1787E-03

 PERCENT DISCREPANCY =          -0.00     PERCENT DISCREPANCY =          -0.00






         TIME SUMMARY AT END OF TIME STEP    7 IN STRESS PERIOD    2
                    SECONDS     MINUTES      HOURS       DAYS        YEARS
                    -----------------------------------------------------------
   TIME STEP LENGTH  86400.      1440.0      24.000      1.0000     2.73785E-03
[...]
   7    9.995       8.310       6.634       5.010       3.585       2.678       1.970       1.311      0.6578      2.1854E-03
   8    9.996       8.422       6.882       5.425       4.136       3.103       2.238       1.461      0.7238      2.4044E-03
   9    9.996       8.501       7.045       5.673       4.433       3.358       2.418       1.570      0.7743      2.5720E-03
  10    9.996       8.540       7.124       5.788       4.566       3.477       2.507       1.626      0.8009      2.6607E-03
1
              HEAD IN LAYER   3 AT END OF TIME STEP  98 IN STRESS PERIOD    3
  ---------------------------------------------------------------------------

            1           2           3           4           5           6           7           8           9          10
 ........................................................................................................................
   1    9.996       8.410       6.871       5.437       4.168       3.104       2.207       1.422      0.6985      2.3202E-03
   2    9.995       8.362       6.767       5.272       3.964       2.935       2.096       1.359      0.6713      2.2301E-03
   3    9.995       8.274       6.565       4.918       3.481       2.577       1.883       1.249      0.6251      2.0768E-03
   4    9.995       8.173       6.303       4.353       2.474       2.008       1.611       1.126      0.5785      1.9222E-03
   5    9.995       8.119       6.120       3.732      0.3398       1.385       1.427       1.067      0.5605      1.8627E-03
   6    9.995       8.190       6.335       4.396       2.523       2.056       1.652       1.156      0.5941      1.9741E-03
   7    9.995       8.310       6.634       5.010       3.585       2.678       1.970       1.311      0.6578      2.1854E-03
   8    9.996       8.422       6.882       5.425       4.136       3.103       2.238       1.461      0.7238      2.4044E-03
   9    9.996       8.501       7.045       5.673       4.433       3.358       2.418       1.570      0.7743      2.5720E-03
  10    9.996       8.540       7.124       5.788       4.566       3.477       2.507       1.626      0.8009      2.6606E-03

 HEAD WILL BE SAVED ON UNIT   51 AT END OF TIME STEP   98, STRESS PERIOD    3

 DRAWDOWN WILL BE SAVED ON UNIT   52 AT END OF TIME STEP   98, STRESS PERIOD    3
1
  VOLUMETRIC BUDGET FOR ENTIRE MODEL AT END OF TIME STEP   98, STRESS PERIOD   3
  ------------------------------------------------------------------------------

     CUMULATIVE VOLUMES      L**3       RATES FOR THIS TIME STEP      L**3/T
     ------------------                 ------------------------

           IN:                                      IN:
           ---                                      ---
             STORAGE =       30405.0137               STORAGE =           0.4894
       CONSTANT HEAD =           0.0000         CONSTANT HEAD =           0.0000
               WELLS =           0.0000                 WELLS =           0.0000
       RIVER LEAKAGE =      126900.0938         RIVER LEAKAGE =         832.6063

            TOTAL IN =      157305.1094              TOTAL IN =         833.0957

          OUT:                                     OUT:
          ----                                     ----
             STORAGE =       4.9369E-02               STORAGE =       5.6785E-04
       CONSTANT HEAD =           0.0000         CONSTANT HEAD =           0.0000
               WELLS =       49000.0000                 WELLS =         500.0000
       RIVER LEAKAGE =      108316.2422         RIVER LEAKAGE =         333.1286

           TOTAL OUT =      157316.2969             TOTAL OUT =         833.1292

            IN - OUT =         -11.1875              IN - OUT =      -3.3447E-02

 PERCENT DISCREPANCY =          -0.01     PERCENT DISCREPANCY =          -0.00






         TIME SUMMARY AT END OF TIME STEP   98 IN STRESS PERIOD    3
                    SECONDS     MINUTES      HOURS       DAYS        YEARS
                    -----------------------------------------------------------
   TIME STEP LENGTH  86400.      1440.0      24.000      1.0000     2.73785E-03
 STRESS PERIOD TIME 8.46720E+06 1.41120E+05  2352.0      98.000     0.26831    
         TOTAL TIME 1.71936E+07 2.86560E+05  4776.0      199.00     0.54483    
1

 SOLVING FOR HEAD 

 OUTPUT CONTROL FOR STRESS PERIOD    3   TIME STEP   99
    SAVE HEAD FOR ALL LAYERS
    SAVE DRAWDOWN FOR ALL LAYERS
    SAVE BUDGET
    PRINT HEAD FOR ALL LAYERS
    PRINT BUDGET
 UBDSV1 SAVING "         STORAGE" ON UNIT  53 AT TIME STEP 99, STRESS PERIOD   3
 UBDSV2 SAVING "   CONSTANT HEAD" ON UNIT  53 AT TIME STEP 99, STRESS PERIOD   3
 UBDSV1 SAVING "FLOW RIGHT FACE " ON UNIT  53 AT TIME STEP 99, STRESS PERIOD   3
 UBDSV1 SAVING "FLOW FRONT FACE " ON UNIT  53 AT TIME STEP 99, STRESS PERIOD   3
 UBDSV1 SAVING "FLOW LOWER FACE " ON UNIT  53 AT TIME STEP 99, STRESS PERIOD   3
1
              HEAD IN LAYER   1 AT END OF TIME STEP  99 IN STRESS PERIOD    3
  ---------------------------------------------------------------------------

            1           2           3           4           5           6           7           8           9          10
 ........................................................................................................................
   1    9.996       8.409       6.871       5.437       4.168       3.103       2.207       1.422      0.6984      2.3201E-03
   2    9.995       8.362       6.767       5.271       3.964       2.935       2.096       1.359      0.6713      2.2300E-03
   3    9.995       8.274       6.565       4.917       3.481       2.577       1.883       1.248      0.6251      2.0767E-03
   4    9.995       8.173       6.303       4.352       2.456       2.007       1.611       1.126      0.5785      1.9221E-03
   5    9.995       8.119       6.120       3.714     -0.4098       1.367       1.426       1.067      0.5605      1.8626E-03
   6    9.995       8.190       6.335       4.395       2.505       2.055       1.652       1.156      0.5941      1.9741E-03
   7    9.995       8.310       6.634       5.010       3.584       2.678       1.970       1.311      0.6578      2.1853E-03
   8    9.996       8.422       6.882       5.425       4.136       3.102       2.238       1.461      0.7237      2.4043E-03
   9    9.996       8.501       7.045       5.673       4.433       3.358       2.418       1.570      0.7742      2.5719E-03
  10    9.996       8.540       7.124       5.788       4.566       3.477       2.507       1.626      0.8009      2.6606E-03
1
              HEAD IN LAYER   2 AT END OF TIME STEP  99 IN STRESS PERIOD    3
  ---------------------------------------------------------------------------

            1           2           3           4           5           6           7           8           9          10
 ........................................................................................................................
   1    9.996       8.409       6.871       5.437       4.168       3.103       2.207       1.422      0.6984      2.3201E-03
   2    9.995       8.362       6.767       5.271       3.964       2.935       2.096       1.359      0.6713      2.2300E-03
   3    9.995       8.274       6.565       4.918       3.481       2.577       1.883       1.248      0.6251      2.0767E-03
   4    9.995       8.173       6.303       4.352       2.466       2.007       1.611       1.126      0.5785      1.9221E-03
   5    9.995       8.119       6.120       3.724      9.6446E-02   1.377       1.427       1.067      0.5605      1.8626E-03
   6    9.995       8.190       6.335       4.396       2.515       2.055       1.652       1.156      0.5941      1.9741E-03
   7    9.995       8.310       6.634       5.010       3.585       2.678       1.970       1.311      0.6578      2.1853E-03
   8    9.996       8.422       6.882       5.425       4.136       3.102       2.238       1.461      0.7237      2.4043E-03
   9    9.996       8.501       7.045       5.673       4.433       3.358       2.418       1.570      0.7742      2.5719E-03
  10    9.996       8.540       7.124       5.788       4.566       3.477       2.507       1.626      0.8009      2.6606E-03
1
              HEAD IN LAYER   3 AT END OF TIME STEP  99 IN STRESS PERIOD    3
  ---------------------------------------------------------------------------

            1           2           3           4           5           6           7           8           9          10
 ........................................................................................................................
   1    9.996       8.409       6.871       5.437       4.168       3.103       2.207       1.422      0.6984      2.3201E-03
   2    9.995       8.362       6.767       5.271       3.964       2.935       2.096       1.359      0.6713      2.2300E-03
   3    9.995       8.274       6.565       4.918       3.481       2.577       1.883       1.248      0.6251      2.0767E-03
   4    9.995       8.173       6.303       4.353       2.474       2.008       1.611       1.126      0.5785      1.9221E-03
   5    9.995       8.119       6.120       3.732      0.3396       1.385       1.427       1.067      0.5605      1.8626E-03
   6    9.995       8.190       6.335       4.396       2.523       2.056       1.652       1.156      0.5941      1.9741E-03
   7    9.995       8.310       6.634       5.010       3.585       2.678       1.970       1.311      0.6578      2.1853E-03
   8    9.996       8.422       6.882       5.425       4.136       3.102       2.238       1.461      0.7237      2.4043E-03
   9    9.996       8.501       7.045       5.673       4.433       3.358       2.418       1.570      0.7742      2.5719E-03
  10    9.996       8.540       7.124       5.788       4.566       3.477       2.507       1.626      0.8009      2.6606E-03

 HEAD WILL BE SAVED ON UNIT   51 AT END OF TIME STEP   99, STRESS PERIOD    3

 DRAWDOWN WILL BE SAVED ON UNIT   52 AT END OF TIME STEP   99, STRESS PERIOD    3
1
  VOLUMETRIC BUDGET FOR ENTIRE MODEL AT END OF TIME STEP   99, STRESS PERIOD   3
  ------------------------------------------------------------------------------

     CUMULATIVE VOLUMES      L**3       RATES FOR THIS TIME STEP      L**3/T
     ------------------                 ------------------------

           IN:                                      IN:
           ---                                      ---
             STORAGE =       30405.4746               STORAGE =           0.4609
       CONSTANT HEAD =           0.0000         CONSTANT HEAD =           0.0000
               WELLS =           0.0000                 WELLS =           0.0000
       RIVER LEAKAGE =      127732.7188         RIVER LEAKAGE =         832.6213

            TOTAL IN =      158138.1875              TOTAL IN =         833.0822

          OUT:                                     OUT:
          ----                                     ----
             STORAGE =       4.9928E-02               STORAGE =       5.5915E-04
       CONSTANT HEAD =           0.0000         CONSTANT HEAD =           0.0000
               WELLS =       49500.0000                 WELLS =         500.0000
       RIVER LEAKAGE =      108649.3594         RIVER LEAKAGE =         333.1152

           TOTAL OUT =      158149.4062             TOTAL OUT =         833.1157

            IN - OUT =         -11.2188              IN - OUT =      -3.3508E-02

 PERCENT DISCREPANCY =          -0.01     PERCENT DISCREPANCY =          -0.00






         TIME SUMMARY AT END OF TIME STEP   99 IN STRESS PERIOD    3
                    SECONDS     MINUTES      HOURS       DAYS        YEARS
                    -----------------------------------------------------------
   TIME STEP LENGTH  86400.      1440.0      24.000      1.0000     2.73785E-03
 STRESS PERIOD TIME 8.55360E+06 1.42560E+05  2376.0      99.000     0.27105    
         TOTAL TIME 1.72800E+07 2.88000E+05  4800.0      200.00     0.54757    
1

 SOLVING FOR HEAD 

 OUTPUT CONTROL FOR STRESS PERIOD    3   TIME STEP  100
    SAVE HEAD FOR ALL LAYERS
    SAVE DRAWDOWN FOR ALL LAYERS
    SAVE BUDGET
    PRINT HEAD FOR ALL LAYERS
    PRINT BUDGET
 UBDSV1 SAVING "         STORAGE" ON UNIT  53 AT TIME STEP100, STRESS PERIOD   3
 UBDSV2 SAVING "   CONSTANT HEAD" ON UNIT  53 AT TIME STEP100, STRESS PERIOD   3
 UBDSV1 SAVING "FLOW RIGHT FACE " ON UNIT  53 AT TIME STEP100, STRESS PERIOD   3
 UBDSV1 SAVING "FLOW FRONT FACE " ON UNIT  53 AT TIME STEP100, STRESS PERIOD   3
 UBDSV1 SAVING "FLOW LOWER FACE " ON UNIT  53 AT TIME STEP100, STRESS PERIOD   3
1
              HEAD IN LAYER   1 AT END OF TIME STEP 100 IN STRESS PERIOD    3
  ---------------------------------------------------------------------------

            1           2           3           4           5           6           7           8           9          10
 ........................................................................................................................
   1    9.996       8.409       6.871       5.437       4.168       3.103       2.207       1.422      0.6984      2.3200E-03
   2    9.995       8.362       6.767       5.271       3.964       2.935       2.096       1.359      0.6713      2.2300E-03
   3    9.995       8.274       6.565       4.917       3.481       2.576       1.883       1.248      0.6251      2.0766E-03
   4    9.995       8.173       6.303       4.352       2.456       2.007       1.611       1.126      0.5784      1.9220E-03
   5    9.995       8.119       6.120       3.714     -0.4100       1.367       1.426       1.067      0.5604      1.8625E-03
   6    9.995       8.190       6.335       4.395       2.505       2.055       1.652       1.156      0.5941      1.9740E-03
   7    9.995       8.310       6.634       5.010       3.584       2.678       1.970       1.311      0.6577      2.1852E-03
   8    9.996       8.422       6.882       5.425       4.136       3.102       2.238       1.461      0.7237      2.4042E-03
   9    9.996       8.501       7.045       5.673       4.433       3.358       2.418       1.570      0.7742      2.5719E-03
  10    9.996       8.540       7.124       5.788       4.566       3.477       2.507       1.626      0.8009      2.6605E-03
1
              HEAD IN LAYER   2 AT END OF TIME STEP 100 IN STRESS PERIOD    3
  ---------------------------------------------------------------------------

            1           2           3           4           5           6           7           8           9          10
 ........................................................................................................................
   1    9.996       8.409       6.871       5.437       4.168       3.103       2.207       1.422      0.6984      2.3200E-03
   2    9.995       8.362       6.767       5.271       3.964       2.935       2.096       1.359      0.6713      2.2300E-03
   3    9.995       8.274       6.565       4.917       3.481       2.576       1.883       1.248      0.6251      2.0766E-03
   4    9.995       8.173       6.303       4.352       2.466       2.007       1.611       1.126      0.5784      1.9220E-03
   5    9.995       8.119       6.120       3.724      9.6262E-02   1.377       1.427       1.067      0.5604      1.8625E-03
   6    9.995       8.190       6.335       4.396       2.515       2.055       1.652       1.156      0.5941      1.9740E-03
   7    9.995       8.310       6.634       5.010       3.585       2.678       1.970       1.311      0.6577      2.1852E-03
   8    9.996       8.422       6.882       5.425       4.136       3.102       2.238       1.461      0.7237      2.4042E-03
   9    9.996       8.501       7.045       5.673       4.433       3.358       2.418       1.570      0.7742      2.5719E-03
  10    9.996       8.540       7.124       5.788       4.566       3.477       2.507       1.626      0.8009      2.6605E-03
1
              HEAD IN LAYER   3 AT END OF TIME STEP 100 IN STRESS PERIOD    3
  ---------------------------------------------------------------------------

            1           2           3           4           5           6           7           8           9          10
 ........................................................................................................................
   1    9.996       8.409       6.871       5.437       4.168       3.103       2.207       1.422      0.6984      2.3200E-03
   2    9.995       8.362       6.767       5.271       3.964       2.935       2.096       1.359      0.6713      2.2300E-03
   3    9.995       8.274       6.565       4.917       3.481       2.577       1.883       1.248      0.6251      2.0766E-03
   4    9.995       8.173       6.303       4.353       2.474       2.008       1.611       1.126      0.5784      1.9220E-03
   5    9.995       8.119       6.120       3.732      0.3395       1.385       1.427       1.067      0.5604      1.8625E-03
   6    9.995       8.190       6.335       4.396       2.523       2.055       1.652       1.156      0.5941      1.9740E-03
   7    9.995       8.310       6.634       5.010       3.585       2.678       1.970       1.311      0.6577      2.1852E-03
   8    9.996       8.422       6.882       5.425       4.136       3.102       2.238       1.461      0.7237      2.4042E-03
   9    9.996       8.501       7.045       5.673       4.433       3.358       2.418       1.570      0.7742      2.5719E-03
  10    9.996       8.540       7.124       5.788       4.566       3.477       2.507       1.626      0.8009      2.6605E-03

 HEAD WILL BE SAVED ON UNIT   51 AT END OF TIME STEP  100, STRESS PERIOD    3

 DRAWDOWN WILL BE SAVED ON UNIT   52 AT END OF TIME STEP  100, STRESS PERIOD    3
1
  VOLUMETRIC BUDGET FOR ENTIRE MODEL AT END OF TIME STEP  100, STRESS PERIOD   3
  ------------------------------------------------------------------------------

     CUMULATIVE VOLUMES      L**3       RATES FOR THIS TIME STEP      L**3/T
     ------------------                 ------------------------

           IN:                                      IN:
           ---                                      ---
             STORAGE =       30405.9082               STORAGE =           0.4341
       CONSTANT HEAD =           0.0000         CONSTANT HEAD =           0.0000
               WELLS =           0.0000                 WELLS =           0.0000
       RIVER LEAKAGE =      128565.3516         RIVER LEAKAGE =         832.6354

            TOTAL IN =      158971.2656              TOTAL IN =         833.0695

          OUT:                                     OUT:
          ----                                     ----
             STORAGE =       5.0536E-02               STORAGE =       6.0766E-04
       CONSTANT HEAD =           0.0000         CONSTANT HEAD =           0.0000
               WELLS =       50000.0000                 WELLS =         500.0000
       RIVER LEAKAGE =      108982.4609         RIVER LEAKAGE =         333.1026

           TOTAL OUT =      158982.5156             TOTAL OUT =         833.1031

            IN - OUT =         -11.2500              IN - OUT =      -3.3630E-02

 PERCENT DISCREPANCY =          -0.01     PERCENT DISCREPANCY =          -0.00






         TIME SUMMARY AT END OF TIME STEP  100 IN STRESS PERIOD    3
                    SECONDS     MINUTES      HOURS       DAYS        YEARS
                    -----------------------------------------------------------
   TIME STEP LENGTH  86400.      1440.0      24.000      1.0000     2.73785E-03
 STRESS PERIOD TIME 8.64000E+06 1.44000E+05  2400.0      100.00     0.27379    
         TOTAL TIME 1.73664E+07 2.89440E+05  4824.0      201.00     0.55031    
1

 Run end date and time (yyyy/mm/dd hh:mm:ss): 2015/10/26 15:49:10
 Elapsed run time:  0.180 Seconds

